<nodes>
    <node id="J01" x="0.0" y="470.0" type="traffic_light"/>
    <node id="J02" x="130.0" y="470.0" type="traffic_light"/>
    <node id="J03" x="255.0" y="470.0" type="traffic_light"/>
    <node id="J04" x="390.0" y="470.0" type="traffic_light"/>
    <node id="J05" x="530.0" y="470.0" type="traffic_light"/>
    <node id="J06" x="675.0" y="470.0" type="traffic_light"/>
    <node id="J07" x="820.0" y="470.0" type="traffic_light"/>
    <node id="J08" x="970.0" y="470.0" type="traffic_light"/>
    <node id="J09" x="1125.0" y="470.0" type="traffic_light"/>
    <node id="J10" x="1280.0" y="470.0" type="traffic_light"/>
    <node id="J11" x="-35.0" y="320.0" type="traffic_light"/>
    <node id="J12" x="115.0" y="320.0" type="traffic_light"/>
    <node id="J13" x="250.0" y="320.0" type="traffic_light"/>
    <node id="J14" x="400.0" y="320.0" type="traffic_light"/>
    <node id="J15" x="545.0" y="320.0" type="traffic_light"/>
    <node id="J16" x="690.0" y="320.0" type="traffic_light"/>
    <node id="J17" x="835.0" y="320.0" type="traffic_light"/>
    <node id="J18" x="980.0" y="320.0" type="traffic_light"/>
    <node id="J19" x="1120.0" y="320.0" type="traffic_light"/>
    <node id="J20" x="1265.0" y="320.0" type="traffic_light"/>
    <node id="J21" x="-55.0" y="155.0" type="traffic_light"/>
    <node id="J22" x="95.0" y="155.0" type="traffic_light"/>
    <node id="J23" x="240.0" y="155.0" type="traffic_light"/>
    <node id="J24" x="395.0" y="155.0" type="traffic_light"/>
    <node id="J25" x="555.0" y="155.0" type="traffic_light"/>
    <node id="J26" x="710.0" y="155.0" type="traffic_light"/>
    <node id="J27" x="870.0" y="155.0" type="traffic_light"/>
    <node id="J28" x="1030.0" y="155.0" type="traffic_light"/>
    <node id="J29" x="1185.0" y="155.0" type="traffic_light"/>
    <node id="J30" x="1335.0" y="155.0" type="traffic_light"/>
    <node id="J31" x="-20.0" y="-20.0" type="traffic_light"/>
    <node id="J32" x="135.0" y="-20.0" type="traffic_light"/>
    <node id="J33" x="285.0" y="-20.0" type="traffic_light"/>
    <node id="J34" x="440.0" y="-20.0" type="traffic_light"/>
    <node id="J35" x="595.0" y="-20.0" type="traffic_light"/>
    <node id="J36" x="745.0" y="-20.0" type="traffic_light"/>
    <node id="J37" x="900.0" y="-20.0" type="traffic_light"/>
    <node id="J38" x="1060.0" y="-20.0" type="traffic_light"/>
    <node id="J39" x="1215.0" y="-20.0" type="traffic_light"/>
    <node id="J40" x="1370.0" y="-20.0" type="traffic_light"/>
    <node id="J41" x="35.0" y="-190.0" type="traffic_light"/>
    <node id="J42" x="185.0" y="-190.0" type="traffic_light"/>
    <node id="J43" x="335.0" y="-190.0" type="traffic_light"/>
    <node id="J44" x="490.0" y="-190.0" type="traffic_light"/>
    <node id="J45" x="650.0" y="-190.0" type="traffic_light"/>
    <node id="J46" x="805.0" y="-190.0" type="traffic_light"/>
    <node id="J47" x="965.0" y="-190.0" type="traffic_light"/>
    <node id="J48" x="1125.0" y="-190.0" type="traffic_light"/>
    <node id="J49" x="1295.0" y="-190.0" type="traffic_light"/>
    <node id="J50" x="1450.0" y="-190.0" type="traffic_light"/>
    <node id="W_TOP" x="-210.0" y="470.0" type="priority"/>
    <node id="W_UPPER" x="-240.0" y="320.0" type="priority"/>
    <node id="W_MAIN" x="-260.0" y="155.0" type="priority"/>
    <node id="W_LOWER" x="-220.0" y="-20.0" type="priority"/>
    <node id="W_SOUTH" x="-180.0" y="-190.0" type="priority"/>
    <node id="E_TOP" x="1440.0" y="470.0" type="priority"/>
    <node id="E_UPPER" x="1485.0" y="320.0" type="priority"/>
    <node id="E_MAIN" x="1540.0" y="155.0" type="priority"/>
    <node id="E_LOWER" x="1505.0" y="-20.0" type="priority"/>
    <node id="E_SOUTH" x="1575.0" y="-190.0" type="priority"/>
    <node id="N_WEST" x="255.0" y="665.0" type="priority"/>
    <node id="N_CENTRAL" x="705.0" y="705.0" type="priority"/>
    <node id="N_EAST" x="1135.0" y="670.0" type="priority"/>
    <node id="S_WEST" x="335.0" y="-365.0" type="priority"/>
    <node id="S_CENTRAL" x="810.0" y="-390.0" type="priority"/>
    <node id="S_EAST" x="1305.0" y="-370.0" type="priority"/>
</nodes>
