<edges>
    <edge id="W_TOP_to_J01" from="W_TOP" to="J01" type="peripheral"/>
    <edge id="J01_to_W_TOP" from="J01" to="W_TOP" type="peripheral"/>
    <edge id="J01_to_J02" from="J01" to="J02" type="peripheral"/>
    <edge id="J02_to_J01" from="J02" to="J01" type="peripheral"/>
    <edge id="J02_to_J03" from="J02" to="J03" type="peripheral"/>
    <edge id="J03_to_J02" from="J03" to="J02" type="peripheral"/>
    <edge id="J03_to_J04" from="J03" to="J04" type="peripheral"/>
    <edge id="J04_to_J03" from="J04" to="J03" type="peripheral"/>
    <edge id="J04_to_J05" from="J04" to="J05" type="peripheral"/>
    <edge id="J05_to_J04" from="J05" to="J04" type="peripheral"/>
    <edge id="J05_to_J06" from="J05" to="J06" type="peripheral"/>
    <edge id="J06_to_J05" from="J06" to="J05" type="peripheral"/>
    <edge id="J06_to_J07" from="J06" to="J07" type="peripheral"/>
    <edge id="J07_to_J06" from="J07" to="J06" type="peripheral"/>
    <edge id="J07_to_J08" from="J07" to="J08" type="peripheral"/>
    <edge id="J08_to_J07" from="J08" to="J07" type="peripheral"/>
    <edge id="J08_to_J09" from="J08" to="J09" type="peripheral"/>
    <edge id="J09_to_J08" from="J09" to="J08" type="peripheral"/>
    <edge id="J09_to_J10" from="J09" to="J10" type="peripheral"/>
    <edge id="J10_to_J09" from="J10" to="J09" type="peripheral"/>
    <edge id="J10_to_E_TOP" from="J10" to="E_TOP" type="peripheral"/>
    <edge id="E_TOP_to_J10" from="E_TOP" to="J10" type="peripheral"/>
    <edge id="W_UPPER_to_J11" from="W_UPPER" to="J11" type="spine"/>
    <edge id="J11_to_W_UPPER" from="J11" to="W_UPPER" type="spine"/>
    <edge id="J11_to_J12" from="J11" to="J12" type="spine"/>
    <edge id="J12_to_J11" from="J12" to="J11" type="spine"/>
    <edge id="J12_to_J13" from="J12" to="J13" type="spine"/>
    <edge id="J13_to_J12" from="J13" to="J12" type="spine"/>
    <edge id="J13_to_J14" from="J13" to="J14" type="spine"/>
    <edge id="J14_to_J13" from="J14" to="J13" type="spine"/>
    <edge id="J14_to_J15" from="J14" to="J15" type="spine"/>
    <edge id="J15_to_J14" from="J15" to="J14" type="spine"/>
    <edge id="J15_to_J16" from="J15" to="J16" type="spine"/>
    <edge id="J16_to_J15" from="J16" to="J15" type="spine"/>
    <edge id="J16_to_J17" from="J16" to="J17" type="spine"/>
    <edge id="J17_to_J16" from="J17" to="J16" type="spine"/>
    <edge id="J17_to_J18" from="J17" to="J18" type="spine"/>
    <edge id="J18_to_J17" from="J18" to="J17" type="spine"/>
    <edge id="J18_to_J19" from="J18" to="J19" type="spine"/>
    <edge id="J19_to_J18" from="J19" to="J18" type="spine"/>
    <edge id="J19_to_J20" from="J19" to="J20" type="spine"/>
    <edge id="J20_to_J19" from="J20" to="J19" type="spine"/>
    <edge id="J20_to_E_UPPER" from="J20" to="E_UPPER" type="spine"/>
    <edge id="E_UPPER_to_J20" from="E_UPPER" to="J20" type="spine"/>
    <edge id="W_MAIN_to_J21" from="W_MAIN" to="J21" type="main"/>
    <edge id="J21_to_W_MAIN" from="J21" to="W_MAIN" type="main"/>
    <edge id="J21_to_J22" from="J21" to="J22" type="main"/>
    <edge id="J22_to_J21" from="J22" to="J21" type="main"/>
    <edge id="J22_to_J23" from="J22" to="J23" type="main"/>
    <edge id="J23_to_J22" from="J23" to="J22" type="main"/>
    <edge id="J23_to_J24" from="J23" to="J24" type="main"/>
    <edge id="J24_to_J23" from="J24" to="J23" type="main"/>
    <edge id="J24_to_J25" from="J24" to="J25" type="main"/>
    <edge id="J25_to_J24" from="J25" to="J24" type="main"/>
    <edge id="J25_to_J26" from="J25" to="J26" type="main"/>
    <edge id="J26_to_J25" from="J26" to="J25" type="main"/>
    <edge id="J26_to_J27" from="J26" to="J27" type="main"/>
    <edge id="J27_to_J26" from="J27" to="J26" type="main"/>
    <edge id="J27_to_J28" from="J27" to="J28" type="main"/>
    <edge id="J28_to_J27" from="J28" to="J27" type="main"/>
    <edge id="J28_to_J29" from="J28" to="J29" type="main"/>
    <edge id="J29_to_J28" from="J29" to="J28" type="main"/>
    <edge id="J29_to_J30" from="J29" to="J30" type="main"/>
    <edge id="J30_to_J29" from="J30" to="J29" type="main"/>
    <edge id="J30_to_E_MAIN" from="J30" to="E_MAIN" type="main"/>
    <edge id="E_MAIN_to_J30" from="E_MAIN" to="J30" type="main"/>
    <edge id="W_LOWER_to_J31" from="W_LOWER" to="J31" type="feeder"/>
    <edge id="J31_to_W_LOWER" from="J31" to="W_LOWER" type="feeder"/>
    <edge id="J31_to_J32" from="J31" to="J32" type="feeder"/>
    <edge id="J32_to_J31" from="J32" to="J31" type="feeder"/>
    <edge id="J32_to_J33" from="J32" to="J33" type="feeder"/>
    <edge id="J33_to_J32" from="J33" to="J32" type="feeder"/>
    <edge id="J33_to_J34" from="J33" to="J34" type="feeder"/>
    <edge id="J34_to_J33" from="J34" to="J33" type="feeder"/>
    <edge id="J34_to_J35" from="J34" to="J35" type="feeder"/>
    <edge id="J35_to_J34" from="J35" to="J34" type="feeder"/>
    <edge id="J35_to_J36" from="J35" to="J36" type="feeder"/>
    <edge id="J36_to_J35" from="J36" to="J35" type="feeder"/>
    <edge id="J36_to_J37" from="J36" to="J37" type="feeder"/>
    <edge id="J37_to_J36" from="J37" to="J36" type="feeder"/>
    <edge id="J37_to_J38" from="J37" to="J38" type="feeder"/>
    <edge id="J38_to_J37" from="J38" to="J37" type="feeder"/>
    <edge id="J38_to_J39" from="J38" to="J39" type="feeder"/>
    <edge id="J39_to_J38" from="J39" to="J38" type="feeder"/>
    <edge id="J39_to_J40" from="J39" to="J40" type="feeder"/>
    <edge id="J40_to_J39" from="J40" to="J39" type="feeder"/>
    <edge id="J40_to_E_LOWER" from="J40" to="E_LOWER" type="feeder"/>
    <edge id="E_LOWER_to_J40" from="E_LOWER" to="J40" type="feeder"/>
    <edge id="W_SOUTH_to_J41" from="W_SOUTH" to="J41" type="peripheral"/>
    <edge id="J41_to_W_SOUTH" from="J41" to="W_SOUTH" type="peripheral"/>
    <edge id="J41_to_J42" from="J41" to="J42" type="peripheral"/>
    <edge id="J42_to_J41" from="J42" to="J41" type="peripheral"/>
    <edge id="J42_to_J43" from="J42" to="J43" type="peripheral"/>
    <edge id="J43_to_J42" from="J43" to="J42" type="peripheral"/>
    <edge id="J43_to_J44" from="J43" to="J44" type="peripheral"/>
    <edge id="J44_to_J43" from="J44" to="J43" type="peripheral"/>
    <edge id="J44_to_J45" from="J44" to="J45" type="peripheral"/>
    <edge id="J45_to_J44" from="J45" to="J44" type="peripheral"/>
    <edge id="J45_to_J46" from="J45" to="J46" type="peripheral"/>
    <edge id="J46_to_J45" from="J46" to="J45" type="peripheral"/>
    <edge id="J46_to_J47" from="J46" to="J47" type="peripheral"/>
    <edge id="J47_to_J46" from="J47" to="J46" type="peripheral"/>
    <edge id="J47_to_J48" from="J47" to="J48" type="peripheral"/>
    <edge id="J48_to_J47" from="J48" to="J47" type="peripheral"/>
    <edge id="J48_to_J49" from="J48" to="J49" type="peripheral"/>
    <edge id="J49_to_J48" from="J49" to="J48" type="peripheral"/>
    <edge id="J49_to_J50" from="J49" to="J50" type="peripheral"/>
    <edge id="J50_to_J49" from="J50" to="J49" type="peripheral"/>
    <edge id="J50_to_E_SOUTH" from="J50" to="E_SOUTH" type="peripheral"/>
    <edge id="E_SOUTH_to_J50" from="E_SOUTH" to="J50" type="peripheral"/>
    <edge id="N_WEST_to_J03" from="N_WEST" to="J03" type="feeder"/>
    <edge id="J03_to_N_WEST" from="J03" to="N_WEST" type="feeder"/>
    <edge id="J03_to_J13" from="J03" to="J13" type="feeder"/>
    <edge id="J13_to_J03" from="J13" to="J03" type="feeder"/>
    <edge id="J13_to_J23" from="J13" to="J23" type="feeder"/>
    <edge id="J23_to_J13" from="J23" to="J13" type="feeder"/>
    <edge id="J23_to_J33" from="J23" to="J33" type="feeder"/>
    <edge id="J33_to_J23" from="J33" to="J23" type="feeder"/>
    <edge id="J33_to_J43" from="J33" to="J43" type="feeder"/>
    <edge id="J43_to_J33" from="J43" to="J33" type="feeder"/>
    <edge id="J43_to_S_WEST" from="J43" to="S_WEST" type="feeder"/>
    <edge id="S_WEST_to_J43" from="S_WEST" to="J43" type="feeder"/>
    <edge id="N_CENTRAL_to_J06" from="N_CENTRAL" to="J06" type="spine"/>
    <edge id="J06_to_N_CENTRAL" from="J06" to="N_CENTRAL" type="spine"/>
    <edge id="J06_to_J16" from="J06" to="J16" type="spine"/>
    <edge id="J16_to_J06" from="J16" to="J06" type="spine"/>
    <edge id="J16_to_J26" from="J16" to="J26" type="spine"/>
    <edge id="J26_to_J16" from="J26" to="J16" type="spine"/>
    <edge id="J26_to_J36" from="J26" to="J36" type="spine"/>
    <edge id="J36_to_J26" from="J36" to="J26" type="spine"/>
    <edge id="J36_to_J46" from="J36" to="J46" type="spine"/>
    <edge id="J46_to_J36" from="J46" to="J36" type="spine"/>
    <edge id="J46_to_S_CENTRAL" from="J46" to="S_CENTRAL" type="spine"/>
    <edge id="S_CENTRAL_to_J46" from="S_CENTRAL" to="J46" type="spine"/>
    <edge id="N_EAST_to_J09" from="N_EAST" to="J09" type="feeder"/>
    <edge id="J09_to_N_EAST" from="J09" to="N_EAST" type="feeder"/>
    <edge id="J09_to_J19" from="J09" to="J19" type="feeder"/>
    <edge id="J19_to_J09" from="J19" to="J09" type="feeder"/>
    <edge id="J19_to_J29" from="J19" to="J29" type="feeder"/>
    <edge id="J29_to_J19" from="J29" to="J19" type="feeder"/>
    <edge id="J29_to_J39" from="J29" to="J39" type="feeder"/>
    <edge id="J39_to_J29" from="J39" to="J29" type="feeder"/>
    <edge id="J39_to_J49" from="J39" to="J49" type="feeder"/>
    <edge id="J49_to_J39" from="J49" to="J39" type="feeder"/>
    <edge id="J49_to_S_EAST" from="J49" to="S_EAST" type="feeder"/>
    <edge id="S_EAST_to_J49" from="S_EAST" to="J49" type="feeder"/>
    <edge id="J01_to_J11" from="J01" to="J11" type="peripheral"/>
    <edge id="J11_to_J01" from="J11" to="J01" type="peripheral"/>
    <edge id="J11_to_J21" from="J11" to="J21" type="feeder"/>
    <edge id="J21_to_J11" from="J21" to="J11" type="feeder"/>
    <edge id="J21_to_J31" from="J21" to="J31" type="peripheral"/>
    <edge id="J31_to_J21" from="J31" to="J21" type="peripheral"/>
    <edge id="J12_to_J22" from="J12" to="J22" type="feeder"/>
    <edge id="J22_to_J12" from="J22" to="J12" type="feeder"/>
    <edge id="J22_to_J32" from="J22" to="J32" type="bottleneck"/>
    <edge id="J32_to_J22" from="J32" to="J22" type="bottleneck"/>
    <edge id="J32_to_J42" from="J32" to="J42" type="peripheral"/>
    <edge id="J42_to_J32" from="J42" to="J32" type="peripheral"/>
    <edge id="J04_to_J14" from="J04" to="J14" type="peripheral"/>
    <edge id="J14_to_J04" from="J14" to="J04" type="peripheral"/>
    <edge id="J14_to_J24" from="J14" to="J24" type="feeder"/>
    <edge id="J24_to_J14" from="J24" to="J14" type="feeder"/>
    <edge id="J24_to_J34" from="J24" to="J34" type="feeder"/>
    <edge id="J34_to_J24" from="J34" to="J24" type="feeder"/>
    <edge id="J34_to_J44" from="J34" to="J44" type="peripheral"/>
    <edge id="J44_to_J34" from="J44" to="J34" type="peripheral"/>
    <edge id="J15_to_J25" from="J15" to="J25" type="bottleneck"/>
    <edge id="J25_to_J15" from="J25" to="J15" type="bottleneck"/>
    <edge id="J25_to_J35" from="J25" to="J35" type="feeder"/>
    <edge id="J35_to_J25" from="J35" to="J25" type="feeder"/>
    <edge id="J35_to_J45" from="J35" to="J45" type="feeder"/>
    <edge id="J45_to_J35" from="J45" to="J35" type="feeder"/>
    <edge id="J07_to_J17" from="J07" to="J17" type="peripheral"/>
    <edge id="J17_to_J07" from="J17" to="J07" type="peripheral"/>
    <edge id="J17_to_J27" from="J17" to="J27" type="feeder"/>
    <edge id="J27_to_J17" from="J27" to="J17" type="feeder"/>
    <edge id="J27_to_J37" from="J27" to="J37" type="bottleneck"/>
    <edge id="J37_to_J27" from="J37" to="J27" type="bottleneck"/>
    <edge id="J37_to_J47" from="J37" to="J47" type="feeder"/>
    <edge id="J47_to_J37" from="J47" to="J37" type="feeder"/>
    <edge id="J18_to_J28" from="J18" to="J28" type="feeder"/>
    <edge id="J28_to_J18" from="J28" to="J18" type="feeder"/>
    <edge id="J28_to_J38" from="J28" to="J38" type="feeder"/>
    <edge id="J38_to_J28" from="J38" to="J28" type="feeder"/>
    <edge id="J38_to_J48" from="J38" to="J48" type="peripheral"/>
    <edge id="J48_to_J38" from="J48" to="J38" type="peripheral"/>
    <edge id="J10_to_J20" from="J10" to="J20" type="peripheral"/>
    <edge id="J20_to_J10" from="J20" to="J10" type="peripheral"/>
    <edge id="J20_to_J30" from="J20" to="J30" type="feeder"/>
    <edge id="J30_to_J20" from="J30" to="J20" type="feeder"/>
    <edge id="J30_to_J40" from="J30" to="J40" type="peripheral"/>
    <edge id="J40_to_J30" from="J40" to="J30" type="peripheral"/>
    <edge id="J40_to_J50" from="J40" to="J50" type="peripheral"/>
    <edge id="J50_to_J40" from="J50" to="J40" type="peripheral"/>
    <edge id="J04_to_J15" from="J04" to="J15" type="peripheral"/>
    <edge id="J15_to_J04" from="J15" to="J04" type="peripheral"/>
    <edge id="J08_to_J19" from="J08" to="J19" type="peripheral"/>
    <edge id="J19_to_J08" from="J19" to="J08" type="peripheral"/>
    <edge id="J15_to_J26" from="J15" to="J26" type="bottleneck"/>
    <edge id="J26_to_J15" from="J26" to="J15" type="bottleneck"/>
    <edge id="J18_to_J29" from="J18" to="J29" type="bottleneck"/>
    <edge id="J29_to_J18" from="J29" to="J18" type="bottleneck"/>
    <edge id="J23_to_J34" from="J23" to="J34" type="peripheral"/>
    <edge id="J34_to_J23" from="J34" to="J23" type="peripheral"/>
    <edge id="J26_to_J37" from="J26" to="J37" type="bottleneck"/>
    <edge id="J37_to_J26" from="J37" to="J26" type="bottleneck"/>
    <edge id="J33_to_J44" from="J33" to="J44" type="peripheral"/>
    <edge id="J44_to_J33" from="J44" to="J33" type="peripheral"/>
    <edge id="J38_to_J49" from="J38" to="J49" type="peripheral"/>
    <edge id="J49_to_J38" from="J49" to="J38" type="peripheral"/>
</edges>
