<?xml version="1.0" encoding="UTF-8"?>

<!-- generated on 2026-04-06T21:28:33.737147+02:00 by Eclipse SUMO netconvert 1.25.0
<netconvertConfiguration xmlns:xsi="http://www.w3.org/2001/XMLSchema-instance" xsi:noNamespaceSchemaLocation="http://sumo.dlr.de/xsd/netconvertConfiguration.xsd">

    <input>
        <node-files value="C:\Users\vedoc\Desktop\capstone_simulationv2\sumo_benchmark\inputs\benchmark.nod.xml"/>
        <edge-files value="C:\Users\vedoc\Desktop\capstone_simulationv2\sumo_benchmark\inputs\benchmark.edg.xml"/>
        <type-files value="C:\Users\vedoc\Desktop\capstone_simulationv2\sumo_benchmark\inputs\benchmark.typ.xml"/>
    </input>

    <output>
        <output-file value="C:\Users\vedoc\Desktop\capstone_simulationv2\sumo_benchmark\generated\benchmark.net.xml"/>
    </output>

    <tls_building>
        <tls.guess value="true"/>
        <tls.green.time value="21"/>
        <tls.yellow.time value="3"/>
        <tls.red.time value="2"/>
        <tls.default-type value="static"/>
    </tls_building>

</netconvertConfiguration>
-->

<net version="1.20" junctionCornerDetail="5" limitTurnSpeed="5.50" xmlns:xsi="http://www.w3.org/2001/XMLSchema-instance" xsi:noNamespaceSchemaLocation="http://sumo.dlr.de/xsd/net_file.xsd">

    <location netOffset="210.00,285.00" convBoundary="0.00,0.00,990.00,785.00" origBoundary="-210.00,-285.00,780.00,500.00" projParameter="!"/>

    <type id="bottleneck" priority="55" numLanes="1" speed="10.00"/>
    <type id="feeder" priority="60" numLanes="2" speed="13.00"/>
    <type id="main" priority="90" numLanes="3" speed="16.70"/>
    <type id="peripheral" priority="40" numLanes="1" speed="11.00"/>
    <type id="spine" priority="80" numLanes="2" speed="15.00"/>

    <edge id=":E_LOWER_0" function="internal">
        <lane id=":E_LOWER_0_0" index="0" speed="3.65" length="4.67" shape="939.69,273.43 941.02,273.98 941.57,274.69 941.33,275.55 940.31,276.57"/>
    </edge>
    <edge id=":E_MAIN_0" function="internal">
        <lane id=":E_MAIN_0_0" index="0" speed="3.65" length="4.67" shape="990.00,453.40 991.20,454.20 991.60,455.00 991.20,455.80 990.00,456.60"/>
    </edge>
    <edge id=":E_TOP_0" function="internal">
        <lane id=":E_TOP_0_0" index="0" speed="3.65" length="4.67" shape="950.00,593.40 951.20,594.20 951.60,595.00 951.20,595.80 950.00,596.60"/>
    </edge>
    <edge id=":J01_0" function="internal">
        <lane id=":J01_0_0" index="0" speed="6.15" length="6.21" shape="212.13,596.93 210.55,596.48 209.34,595.65 208.52,594.45 208.08,592.86"/>
    </edge>
    <edge id=":J01_1" function="internal">
        <lane id=":J01_1_0" index="0" speed="3.94" length="2.07" shape="211.25,592.41 211.39,592.94 211.67,593.34 212.07,593.62 212.60,593.77"/>
    </edge>
    <edge id=":J02_0" function="internal">
        <lane id=":J02_0_0" index="0" speed="11.00" length="58.11" shape="355.66,615.43 345.19,615.84 326.62,616.22 308.05,616.49 297.56,616.60"/>
    </edge>
    <edge id=":J02_1" function="internal">
        <lane id=":J02_1_0" index="0" speed="11.00" length="58.12" shape="355.66,615.43 345.22,614.86 326.74,613.01 308.26,610.92 297.84,609.63"/>
    </edge>
    <edge id=":J02_2" function="internal">
        <lane id=":J02_2_0" index="0" speed="8.81" length="17.99" shape="355.66,615.43 350.30,615.37 346.38,613.86 343.89,610.89 342.83,606.46"/>
    </edge>
    <edge id=":J02_3" function="internal">
        <lane id=":J02_3_0" index="0" speed="3.65" length="1.44" shape="355.66,615.43 354.38,614.76"/>
    </edge>
    <edge id=":J02_16" function="internal">
        <lane id=":J02_16_0" index="0" speed="3.65" length="3.23" shape="354.38,614.76 353.89,614.01 354.20,613.17 355.31,612.25"/>
    </edge>
    <edge id=":J02_4" function="internal">
        <lane id=":J02_4_0" index="0" speed="6.71" length="9.99" shape="349.21,606.04 349.76,608.99 350.96,611.01 352.81,612.09 355.31,612.25"/>
    </edge>
    <edge id=":J02_5" function="internal">
        <lane id=":J02_5_0" index="0" speed="12.00" length="51.69" shape="346.02,606.25 343.25,610.78 334.25,614.01 319.02,615.95 297.56,616.60"/>
    </edge>
    <edge id=":J02_6" function="internal">
        <lane id=":J02_6_0" index="0" speed="12.00" length="50.91" shape="346.02,606.25 342.47,611.07 332.11,612.73 316.65,612.01 297.84,609.63"/>
    </edge>
    <edge id=":J02_7" function="internal">
        <lane id=":J02_7_0" index="0" speed="3.65" length="2.34" shape="346.02,606.25 345.30,607.50 344.53,607.95"/>
    </edge>
    <edge id=":J02_17" function="internal">
        <lane id=":J02_17_0" index="0" speed="3.65" length="2.34" shape="344.53,607.95 343.71,607.61 342.83,606.46"/>
    </edge>
    <edge id=":J02_8" function="internal">
        <lane id=":J02_8_0" index="0" speed="12.00" length="42.39" shape="298.31,606.47 316.54,608.80 329.50,609.61 337.20,608.90 339.63,606.68"/>
    </edge>
    <edge id=":J02_9" function="internal">
        <lane id=":J02_9_0" index="0" speed="11.00" length="57.30" shape="298.31,606.47 308.60,607.76 326.80,609.84 345.00,611.68 355.31,612.25"/>
    </edge>
    <edge id=":J02_10" function="internal">
        <lane id=":J02_10_0" index="0" speed="5.75" length="14.27" shape="298.31,606.47 301.34,608.40 302.15,611.84 300.85,615.13 297.56,616.60"/>
    </edge>
    <edge id=":J02_11" function="internal">
        <lane id=":J02_11_0" index="0" speed="3.65" length="1.44" shape="298.31,606.47 299.38,607.43"/>
    </edge>
    <edge id=":J02_18" function="internal">
        <lane id=":J02_18_0" index="0" speed="3.65" length="3.23" shape="299.38,607.43 299.66,608.28 299.15,609.02 297.84,609.63"/>
    </edge>
    <edge id=":J02_12" function="internal">
        <lane id=":J02_12_0" index="0" speed="7.53" length="26.01" shape="297.56,613.40 307.23,613.16 310.49,612.46 307.36,611.28 297.84,609.63"/>
    </edge>
    <edge id=":J02_13" function="internal">
        <lane id=":J02_13_0" index="0" speed="12.00" length="46.98" shape="297.56,613.40 317.54,612.97 331.74,611.67 340.17,609.50 342.83,606.46"/>
    </edge>
    <edge id=":J02_14" function="internal">
        <lane id=":J02_14_0" index="0" speed="11.00" length="57.76" shape="297.56,613.40 308.00,613.30 326.45,613.03 344.89,612.66 355.31,612.25"/>
    </edge>
    <edge id=":J02_15" function="internal">
        <lane id=":J02_15_0" index="0" speed="3.65" length="1.44" shape="297.56,613.40 298.76,614.20"/>
    </edge>
    <edge id=":J02_19" function="internal">
        <lane id=":J02_19_0" index="0" speed="3.65" length="3.23" shape="298.76,614.20 299.16,615.00 298.76,615.80 297.56,616.60"/>
    </edge>
    <edge id=":J03_0" function="internal">
        <lane id=":J03_0_0" index="0" speed="7.22" length="12.31" shape="475.20,611.88 474.84,607.66 473.76,604.74 471.96,603.11 469.45,602.78"/>
    </edge>
    <edge id=":J03_1" function="internal">
        <lane id=":J03_1_0" index="0" speed="15.00" length="18.39" shape="475.20,611.88 475.20,593.49"/>
        <lane id=":J03_1_1" index="1" speed="15.00" length="18.39" shape="478.40,611.88 478.40,593.49"/>
    </edge>
    <edge id=":J03_3" function="internal">
        <lane id=":J03_3_0" index="0" speed="10.41" length="3.54" shape="478.40,611.88 479.12,608.42"/>
    </edge>
    <edge id=":J03_4" function="internal">
        <lane id=":J03_4_0" index="0" speed="8.61" length="2.63" shape="478.40,611.88 479.14,609.35"/>
    </edge>
    <edge id=":J03_5" function="internal">
        <lane id=":J03_5_0" index="0" speed="3.65" length="1.44" shape="478.40,611.88 479.20,610.68"/>
    </edge>
    <edge id=":J03_27" function="internal">
        <lane id=":J03_27_0" index="0" speed="10.41" length="23.90" shape="479.12,608.42 479.81,605.11 483.85,601.51 490.28,600.39 498.83,601.07"/>
    </edge>
    <edge id=":J03_28" function="internal">
        <lane id=":J03_28_0" index="0" speed="8.61" length="21.18" shape="479.14,609.35 480.04,606.26 484.29,604.37 490.18,605.46 496.71,608.76"/>
    </edge>
    <edge id=":J03_29" function="internal">
        <lane id=":J03_29_0" index="0" speed="3.65" length="3.23" shape="479.20,610.68 480.00,610.28 480.80,610.68 481.60,611.88"/>
    </edge>
    <edge id=":J03_6" function="internal">
        <lane id=":J03_6_0" index="0" speed="6.56" length="13.16" shape="494.99,611.46 490.53,609.05 487.35,608.31 485.44,609.26 484.80,611.88"/>
    </edge>
    <edge id=":J03_7" function="internal">
        <lane id=":J03_7_0" index="0" speed="11.00" length="27.15" shape="494.99,611.46 489.92,608.89 482.50,605.90 474.94,603.53 469.45,602.78"/>
    </edge>
    <edge id=":J03_8" function="internal">
        <lane id=":J03_8_0" index="0" speed="13.00" length="25.18" shape="494.99,611.46 487.73,606.37 482.55,601.68 479.44,597.38 478.40,593.49"/>
    </edge>
    <edge id=":J03_9" function="internal">
        <lane id=":J03_9_0" index="0" speed="6.20" length="15.20" shape="494.99,611.46 492.54,608.32 492.68,604.70 494.93,601.86 498.83,601.07"/>
    </edge>
    <edge id=":J03_10" function="internal">
        <lane id=":J03_10_0" index="0" speed="3.65" length="1.44" shape="494.99,611.46 494.41,610.14"/>
    </edge>
    <edge id=":J03_30" function="internal">
        <lane id=":J03_30_0" index="0" speed="3.65" length="3.23" shape="494.41,610.14 494.50,609.25 495.27,608.79 496.71,608.76"/>
    </edge>
    <edge id=":J03_11" function="internal">
        <lane id=":J03_11_0" index="0" speed="5.67" length="12.38" shape="498.38,604.24 494.05,603.92 492.32,604.57 493.21,606.18 496.71,608.76"/>
    </edge>
    <edge id=":J03_12" function="internal">
        <lane id=":J03_12_0" index="0" speed="8.56" length="18.17" shape="498.38,604.24 492.44,603.99 488.20,605.18 485.65,607.81 484.80,611.88"/>
    </edge>
    <edge id=":J03_13" function="internal">
        <lane id=":J03_13_0" index="0" speed="11.00" length="28.99" shape="498.38,604.24 492.47,603.64 483.92,603.04 475.37,602.68 469.45,602.78"/>
    </edge>
    <edge id=":J03_14" function="internal">
        <lane id=":J03_14_0" index="0" speed="10.89" length="6.96" shape="498.38,604.24 491.56,602.88"/>
    </edge>
    <edge id=":J03_15" function="internal">
        <lane id=":J03_15_0" index="0" speed="3.65" length="1.44" shape="498.38,604.24 497.31,603.28"/>
    </edge>
    <edge id=":J03_31" function="internal">
        <lane id=":J03_31_0" index="0" speed="10.89" length="17.28" shape="491.56,602.88 489.64,602.50 483.40,600.13 479.65,597.12 478.40,593.49"/>
    </edge>
    <edge id=":J03_32" function="internal">
        <lane id=":J03_32_0" index="0" speed="3.65" length="3.23" shape="497.31,603.28 497.02,602.43 497.53,601.70 498.83,601.07"/>
    </edge>
    <edge id=":J03_16" function="internal">
        <lane id=":J03_16_0" index="0" speed="9.20" length="17.05" shape="484.80,593.49 485.68,596.06 488.31,598.18 492.69,599.85 498.83,601.07"/>
    </edge>
    <edge id=":J03_17" function="internal">
        <lane id=":J03_17_0" index="0" speed="12.39" length="20.11" shape="484.80,593.49 485.54,597.32 487.78,601.15 491.50,604.96 496.71,608.76"/>
    </edge>
    <edge id=":J03_18" function="internal">
        <lane id=":J03_18_0" index="0" speed="15.00" length="18.39" shape="484.80,593.49 484.80,611.88"/>
        <lane id=":J03_18_1" index="1" speed="15.00" length="18.39" shape="481.60,593.49 481.60,611.88"/>
    </edge>
    <edge id=":J03_20" function="internal">
        <lane id=":J03_20_0" index="0" speed="9.05" length="3.43" shape="481.60,593.49 480.88,596.84"/>
    </edge>
    <edge id=":J03_21" function="internal">
        <lane id=":J03_21_0" index="0" speed="3.65" length="1.44" shape="481.60,593.49 480.80,594.69"/>
    </edge>
    <edge id=":J03_33" function="internal">
        <lane id=":J03_33_0" index="0" speed="9.05" length="13.45" shape="480.88,596.84 480.84,597.05 478.56,599.78 474.76,601.70 469.45,602.78"/>
    </edge>
    <edge id=":J03_34" function="internal">
        <lane id=":J03_34_0" index="0" speed="3.65" length="3.23" shape="480.80,594.69 480.00,595.09 479.20,594.69 478.40,593.49"/>
    </edge>
    <edge id=":J03_22" function="internal">
        <lane id=":J03_22_0" index="0" speed="6.97" length="9.62" shape="469.09,599.60 471.77,598.97 473.67,597.74 474.82,595.91 475.20,593.49"/>
    </edge>
    <edge id=":J03_23" function="internal">
        <lane id=":J03_23_0" index="0" speed="11.00" length="29.80" shape="469.09,599.60 475.14,599.50 483.97,599.87 492.80,600.47 498.83,601.07"/>
    </edge>
    <edge id=":J03_24" function="internal">
        <lane id=":J03_24_0" index="0" speed="11.00" length="4.44" shape="469.09,599.60 473.49,600.22"/>
    </edge>
    <edge id=":J03_25" function="internal">
        <lane id=":J03_25_0" index="0" speed="9.16" length="6.00" shape="469.09,599.60 474.57,599.85 475.02,600.10"/>
    </edge>
    <edge id=":J03_26" function="internal">
        <lane id=":J03_26_0" index="0" speed="3.65" length="1.44" shape="469.09,599.60 470.38,600.26"/>
    </edge>
    <edge id=":J03_35" function="internal">
        <lane id=":J03_35_0" index="0" speed="11.00" length="24.81" shape="473.49,600.22 474.91,600.42 483.18,602.97 491.31,606.12 496.71,608.76"/>
    </edge>
    <edge id=":J03_36" function="internal">
        <lane id=":J03_36_0" index="0" speed="9.16" length="14.52" shape="475.02,600.10 478.47,601.98 480.82,605.99 481.60,611.88"/>
    </edge>
    <edge id=":J03_37" function="internal">
        <lane id=":J03_37_0" index="0" speed="3.65" length="3.23" shape="470.38,600.26 470.86,601.02 470.55,601.85 469.45,602.78"/>
    </edge>
    <edge id=":J04_0" function="internal">
        <lane id=":J04_0_0" index="0" speed="11.00" length="22.26" shape="631.44,619.72 626.58,620.22 620.34,620.47 614.09,620.43 609.22,620.08"/>
    </edge>
    <edge id=":J04_1" function="internal">
        <lane id=":J04_1_0" index="0" speed="8.34" length="6.72" shape="631.44,619.72 625.72,620.00 624.78,619.68"/>
    </edge>
    <edge id=":J04_2" function="internal">
        <lane id=":J04_2_0" index="0" speed="3.65" length="1.44" shape="631.44,619.72 630.12,619.12"/>
    </edge>
    <edge id=":J04_9" function="internal">
        <lane id=":J04_9_0" index="0" speed="8.34" length="11.54" shape="624.78,619.68 621.74,618.66 619.50,615.70 618.99,611.12"/>
    </edge>
    <edge id=":J04_10" function="internal">
        <lane id=":J04_10_0" index="0" speed="3.65" length="3.23" shape="630.12,619.12 629.60,618.40 629.86,617.55 630.91,616.56"/>
    </edge>
    <edge id=":J04_3" function="internal">
        <lane id=":J04_3_0" index="0" speed="6.06" length="9.07" shape="625.37,611.54 625.57,614.11 626.56,615.80 628.34,616.62 630.91,616.56"/>
    </edge>
    <edge id=":J04_4" function="internal">
        <lane id=":J04_4_0" index="0" speed="8.74" length="18.11" shape="622.18,611.33 621.11,615.81 618.59,618.77 614.63,620.19 609.22,620.08"/>
    </edge>
    <edge id=":J04_5" function="internal">
        <lane id=":J04_5_0" index="0" speed="3.65" length="2.34" shape="622.18,611.33 621.30,612.47 620.48,612.82"/>
    </edge>
    <edge id=":J04_11" function="internal">
        <lane id=":J04_11_0" index="0" speed="3.65" length="2.34" shape="620.48,612.82 619.71,612.37 618.99,611.12"/>
    </edge>
    <edge id=":J04_6" function="internal">
        <lane id=":J04_6_0" index="0" speed="6.62" length="9.93" shape="609.67,616.91 612.18,616.84 614.04,615.81 615.24,613.83 615.80,610.90"/>
    </edge>
    <edge id=":J04_7" function="internal">
        <lane id=":J04_7_0" index="0" speed="11.00" length="21.29" shape="609.67,616.91 614.39,617.27 620.30,617.31 626.21,617.06 630.91,616.56"/>
    </edge>
    <edge id=":J04_8" function="internal">
        <lane id=":J04_8_0" index="0" speed="3.65" length="1.44" shape="609.67,616.91 610.75,617.87"/>
    </edge>
    <edge id=":J04_12" function="internal">
        <lane id=":J04_12_0" index="0" speed="3.65" length="3.23" shape="610.75,617.87 611.03,618.72 610.52,619.45 609.22,620.08"/>
    </edge>
    <edge id=":J05_0" function="internal">
        <lane id=":J05_0_0" index="0" speed="11.00" length="13.79" shape="777.82,596.60 774.26,596.64 770.93,596.80 767.61,597.10 764.09,597.61"/>
    </edge>
    <edge id=":J05_1" function="internal">
        <lane id=":J05_1_0" index="0" speed="7.72" length="4.19" shape="777.82,596.60 773.67,596.00"/>
    </edge>
    <edge id=":J05_2" function="internal">
        <lane id=":J05_2_0" index="0" speed="3.65" length="1.44" shape="777.82,596.60 776.62,595.80"/>
    </edge>
    <edge id=":J05_9" function="internal">
        <lane id=":J05_9_0" index="0" speed="7.72" length="10.72" shape="773.67,596.00 770.95,594.20 769.66,591.21 769.80,587.02"/>
    </edge>
    <edge id=":J05_10" function="internal">
        <lane id=":J05_10_0" index="0" speed="3.65" length="3.23" shape="776.62,595.80 776.22,595.00 776.62,594.20 777.82,593.40"/>
    </edge>
    <edge id=":J05_3" function="internal">
        <lane id=":J05_3_0" index="0" speed="6.16" length="9.05" shape="772.95,587.58 772.86,590.13 773.65,591.95 775.30,593.04 777.82,593.40"/>
    </edge>
    <edge id=":J05_4" function="internal">
        <lane id=":J05_4_0" index="0" speed="9.27" length="14.34" shape="772.95,587.58 771.81,591.51 769.95,594.49 767.38,596.53 764.09,597.61"/>
    </edge>
    <edge id=":J05_5" function="internal">
        <lane id=":J05_5_0" index="0" speed="3.65" length="1.44" shape="772.95,587.58 771.95,588.62"/>
    </edge>
    <edge id=":J05_11" function="internal">
        <lane id=":J05_11_0" index="0" speed="3.65" length="3.23" shape="771.95,588.62 771.09,588.87 770.38,588.34 769.80,587.02"/>
    </edge>
    <edge id=":J05_6" function="internal">
        <lane id=":J05_6_0" index="0" speed="7.97" length="10.39" shape="763.56,594.45 765.85,593.67 767.65,592.17 768.97,589.95 769.80,587.02"/>
    </edge>
    <edge id=":J05_7" function="internal">
        <lane id=":J05_7_0" index="0" speed="11.00" length="14.31" shape="763.56,594.45 767.17,593.94 770.67,593.62 774.18,593.45 777.82,593.40"/>
    </edge>
    <edge id=":J05_8" function="internal">
        <lane id=":J05_8_0" index="0" speed="3.65" length="1.44" shape="763.56,594.45 764.88,595.04"/>
    </edge>
    <edge id=":J05_12" function="internal">
        <lane id=":J05_12_0" index="0" speed="3.65" length="3.23" shape="764.88,595.04 765.41,595.77 765.14,596.62 764.09,597.61"/>
    </edge>
    <edge id=":J06_0" function="internal">
        <lane id=":J06_0_0" index="0" speed="7.21" length="10.09" shape="190.47,469.58 189.72,466.70 188.41,464.65 186.55,463.41 184.14,463.00"/>
    </edge>
    <edge id=":J06_1" function="internal">
        <lane id=":J06_1_0" index="0" speed="9.64" length="24.44" shape="190.47,469.58 189.99,461.08 191.36,455.12 194.58,451.71 199.63,450.85"/>
        <lane id=":J06_1_1" index="1" speed="9.02" length="21.25" shape="190.47,469.58 190.15,462.49 191.54,457.54 194.63,454.72 199.41,454.05"/>
    </edge>
    <edge id=":J06_3" function="internal">
        <lane id=":J06_3_0" index="0" speed="3.65" length="1.44" shape="190.47,469.58 191.09,468.28"/>
    </edge>
    <edge id=":J06_14" function="internal">
        <lane id=":J06_14_0" index="0" speed="3.65" length="3.23" shape="191.09,468.28 191.82,467.77 192.67,468.05 193.63,469.13"/>
    </edge>
    <edge id=":J06_4" function="internal">
        <lane id=":J06_4_0" index="0" speed="6.10" length="9.06" shape="198.75,463.62 196.20,463.81 194.49,464.79 193.64,466.57 193.63,469.13"/>
    </edge>
    <edge id=":J06_5" function="internal">
        <lane id=":J06_5_0" index="0" speed="16.70" length="14.85" shape="198.75,463.62 184.14,463.00"/>
        <lane id=":J06_5_1" index="1" speed="16.70" length="14.85" shape="198.97,460.43 184.14,459.80"/>
        <lane id=":J06_5_2" index="2" speed="16.70" length="14.85" shape="199.19,457.24 184.14,456.60"/>
    </edge>
    <edge id=":J06_8" function="internal">
        <lane id=":J06_8_0" index="0" speed="3.65" length="1.44" shape="199.19,457.24 198.05,456.36"/>
    </edge>
    <edge id=":J06_15" function="internal">
        <lane id=":J06_15_0" index="0" speed="3.65" length="3.23" shape="198.05,456.36 197.71,455.53 198.16,454.76 199.41,454.05"/>
    </edge>
    <edge id=":J06_9" function="internal">
        <lane id=":J06_9_0" index="0" speed="16.70" length="15.51" shape="184.14,447.00 199.85,447.66"/>
        <lane id=":J06_9_1" index="1" speed="16.70" length="15.51" shape="184.14,450.20 199.63,450.85"/>
        <lane id=":J06_9_2" index="2" speed="16.70" length="15.51" shape="184.14,453.40 199.41,454.05"/>
    </edge>
    <edge id=":J06_12" function="internal">
        <lane id=":J06_12_0" index="0" speed="9.89" length="2.97" shape="184.14,453.40 186.99,454.25"/>
    </edge>
    <edge id=":J06_13" function="internal">
        <lane id=":J06_13_0" index="0" speed="3.65" length="1.44" shape="184.14,453.40 185.34,454.20"/>
    </edge>
    <edge id=":J06_16" function="internal">
        <lane id=":J06_16_0" index="0" speed="9.89" length="16.83" shape="186.99,454.25 187.45,454.38 190.14,457.33 192.20,462.25 193.63,469.13"/>
    </edge>
    <edge id=":J06_17" function="internal">
        <lane id=":J06_17_0" index="0" speed="3.65" length="3.23" shape="185.34,454.20 185.74,455.00 185.34,455.80 184.14,456.60"/>
    </edge>
    <edge id=":J07_0" function="internal">
        <lane id=":J07_0_0" index="0" speed="9.23" length="17.23" shape="331.13,479.10 330.08,476.25 327.37,474.08 322.99,472.59 316.95,471.77"/>
    </edge>
    <edge id=":J07_1" function="internal">
        <lane id=":J07_1_0" index="0" speed="12.00" length="30.75" shape="331.13,479.10 329.69,470.95 326.93,462.45 323.69,455.10 320.83,450.39"/>
    </edge>
    <edge id=":J07_2" function="internal">
        <lane id=":J07_2_0" index="0" speed="11.50" length="28.94" shape="331.13,479.10 331.43,471.13 332.80,462.95 334.43,455.71 335.52,450.57"/>
    </edge>
    <edge id=":J07_3" function="internal">
        <lane id=":J07_3_0" index="0" speed="9.79" length="12.37" shape="334.32,478.89 334.64,472.11 336.64,467.21 336.87,467.02"/>
    </edge>
    <edge id=":J07_4" function="internal">
        <lane id=":J07_4_0" index="0" speed="3.65" length="2.34" shape="334.32,478.89 335.04,477.64 335.81,477.18"/>
    </edge>
    <edge id=":J07_29" function="internal">
        <lane id=":J07_29_0" index="0" speed="9.79" length="9.92" shape="336.87,467.02 340.31,464.18 345.65,463.03"/>
    </edge>
    <edge id=":J07_30" function="internal">
        <lane id=":J07_30_0" index="0" speed="3.65" length="2.34" shape="335.81,477.18 336.64,477.53 337.52,478.67"/>
    </edge>
    <edge id=":J07_5" function="internal">
        <lane id=":J07_5_0" index="0" speed="6.44" length="9.03" shape="345.98,472.63 343.53,473.06 341.84,474.18 340.90,475.98 340.71,478.46"/>
    </edge>
    <edge id=":J07_6" function="internal">
        <lane id=":J07_6_0" index="0" speed="16.70" length="28.74" shape="345.98,472.63 337.36,472.84 331.45,472.76 325.56,472.40 316.95,471.77"/>
        <lane id=":J07_6_1" index="1" speed="16.70" length="28.74" shape="345.87,469.43 337.35,469.64 331.51,469.56 325.68,469.20 317.17,468.58"/>
        <lane id=":J07_6_2" index="2" speed="16.70" length="28.74" shape="345.76,466.23 337.33,466.44 331.56,466.36 325.80,466.00 317.39,465.39"/>
    </edge>
    <edge id=":J07_9" function="internal">
        <lane id=":J07_9_0" index="0" speed="13.85" length="4.27" shape="345.76,466.23 341.53,465.62"/>
    </edge>
    <edge id=":J07_10" function="internal">
        <lane id=":J07_10_0" index="0" speed="9.29" length="4.08" shape="345.76,466.23 341.72,465.62"/>
    </edge>
    <edge id=":J07_11" function="internal">
        <lane id=":J07_11_0" index="0" speed="3.65" length="1.44" shape="345.76,466.23 344.53,465.47"/>
    </edge>
    <edge id=":J07_31" function="internal">
        <lane id=":J07_31_0" index="0" speed="13.85" length="26.19" shape="341.53,465.62 339.89,465.39 333.78,462.47 327.43,457.47 320.83,450.39"/>
    </edge>
    <edge id=":J07_32" function="internal">
        <lane id=":J07_32_0" index="0" speed="9.29" length="18.11" shape="341.72,465.62 340.39,465.41 336.89,462.53 335.27,457.59 335.52,450.57"/>
    </edge>
    <edge id=":J07_33" function="internal">
        <lane id=":J07_33_0" index="0" speed="3.65" length="3.23" shape="344.53,465.47 344.11,464.69 344.48,463.87 345.65,463.03"/>
    </edge>
    <edge id=":J07_12" function="internal">
        <lane id=":J07_12_0" index="0" speed="6.54" length="10.39" shape="338.69,451.04 338.78,453.59 339.94,455.37 342.15,456.38 345.43,456.64"/>
    </edge>
    <edge id=":J07_13" function="internal">
        <lane id=":J07_13_0" index="0" speed="11.50" length="27.52" shape="338.69,451.04 338.60,456.01 339.17,462.86 340.01,470.66 340.71,478.46"/>
    </edge>
    <edge id=":J07_14" function="internal">
        <lane id=":J07_14_0" index="0" speed="11.98" length="8.50" shape="338.69,451.04 336.29,459.20"/>
    </edge>
    <edge id=":J07_15" function="internal">
        <lane id=":J07_15_0" index="0" speed="8.21" length="2.94" shape="338.69,451.04 337.39,453.68"/>
    </edge>
    <edge id=":J07_16" function="internal">
        <lane id=":J07_16_0" index="0" speed="3.65" length="1.44" shape="338.69,451.04 337.72,452.11"/>
    </edge>
    <edge id=":J07_34" function="internal">
        <lane id=":J07_34_0" index="0" speed="11.98" length="22.64" shape="336.29,459.20 331.91,464.84 325.54,467.97 317.17,468.58"/>
    </edge>
    <edge id=":J07_35" function="internal">
        <lane id=":J07_35_0" index="0" speed="8.21" length="20.45" shape="337.39,453.68 336.17,456.16 331.59,457.26 326.09,455.10 320.83,450.39"/>
    </edge>
    <edge id=":J07_36" function="internal">
        <lane id=":J07_36_0" index="0" speed="3.65" length="3.23" shape="337.72,452.11 336.87,452.39 336.14,451.88 335.52,450.57"/>
    </edge>
    <edge id=":J07_17" function="internal">
        <lane id=":J07_17_0" index="0" speed="7.23" length="17.76" shape="323.30,448.35 328.05,453.31 331.68,455.34 334.16,454.42 335.52,450.57"/>
    </edge>
    <edge id=":J07_18" function="internal">
        <lane id=":J07_18_0" index="0" speed="13.85" length="25.93" shape="323.30,448.35 328.38,453.53 333.79,457.18 339.51,459.28 345.54,459.83"/>
    </edge>
    <edge id=":J07_19" function="internal">
        <lane id=":J07_19_0" index="0" speed="12.00" length="33.79" shape="323.30,448.35 326.77,453.31 331.35,461.21 335.46,470.27 337.52,478.67"/>
    </edge>
    <edge id=":J07_20" function="internal">
        <lane id=":J07_20_0" index="0" speed="8.22" length="23.74" shape="323.30,448.35 326.47,454.37 326.49,460.02 323.43,464.10 317.39,465.39"/>
    </edge>
    <edge id=":J07_21" function="internal">
        <lane id=":J07_21_0" index="0" speed="3.65" length="1.44" shape="323.30,448.35 323.45,449.78"/>
    </edge>
    <edge id=":J07_37" function="internal">
        <lane id=":J07_37_0" index="0" speed="3.65" length="3.23" shape="323.45,449.78 323.08,450.60 322.21,450.80 320.83,450.39"/>
    </edge>
    <edge id=":J07_22" function="internal">
        <lane id=":J07_22_0" index="0" speed="5.49" length="9.66" shape="318.05,455.81 321.11,455.67 322.60,454.72 322.51,452.96 320.83,450.39"/>
    </edge>
    <edge id=":J07_23" function="internal">
        <lane id=":J07_23_0" index="0" speed="9.59" length="19.61" shape="318.05,455.81 325.34,455.91 330.68,455.07 334.07,453.29 335.52,450.57"/>
    </edge>
    <edge id=":J07_24" function="internal">
        <lane id=":J07_24_0" index="0" speed="16.70" length="27.75" shape="318.05,455.81 326.17,456.40 331.73,456.75 337.30,456.84 345.43,456.64"/>
        <lane id=":J07_24_1" index="1" speed="16.70" length="27.75" shape="317.83,459.00 326.04,459.60 331.67,459.96 337.31,460.04 345.54,459.83"/>
        <lane id=":J07_24_2" index="2" speed="16.70" length="27.75" shape="317.61,462.20 325.92,462.80 331.62,463.16 337.32,463.24 345.65,463.03"/>
    </edge>
    <edge id=":J07_27" function="internal">
        <lane id=":J07_27_0" index="0" speed="11.76" length="6.56" shape="317.61,462.20 324.06,463.37"/>
    </edge>
    <edge id=":J07_28" function="internal">
        <lane id=":J07_28_0" index="0" speed="3.65" length="1.44" shape="317.61,462.20 318.75,463.08"/>
    </edge>
    <edge id=":J07_38" function="internal">
        <lane id=":J07_38_0" index="0" speed="11.76" length="22.03" shape="324.06,463.37 325.94,463.72 332.03,466.97 335.89,471.95 337.52,478.67"/>
    </edge>
    <edge id=":J07_39" function="internal">
        <lane id=":J07_39_0" index="0" speed="3.65" length="3.23" shape="318.75,463.08 319.09,463.90 318.64,464.67 317.39,465.39"/>
    </edge>
    <edge id=":J08_0" function="internal">
        <lane id=":J08_0_0" index="0" speed="6.49" length="9.21" shape="475.20,474.05 474.85,471.49 473.79,469.69 472.02,468.65 469.55,468.37"/>
    </edge>
    <edge id=":J08_1" function="internal">
        <lane id=":J08_1_0" index="0" speed="15.00" length="27.89" shape="475.20,474.05 476.18,446.06"/>
        <lane id=":J08_1_1" index="1" speed="15.00" length="27.89" shape="478.40,474.05 479.38,446.29"/>
    </edge>
    <edge id=":J08_3" function="internal">
        <lane id=":J08_3_0" index="0" speed="9.74" length="7.11" shape="478.40,474.05 479.20,467.21 479.30,467.01"/>
    </edge>
    <edge id=":J08_4" function="internal">
        <lane id=":J08_4_0" index="0" speed="3.65" length="1.44" shape="478.40,474.05 479.20,472.85"/>
    </edge>
    <edge id=":J08_22" function="internal">
        <lane id=":J08_22_0" index="0" speed="9.74" length="15.52" shape="479.30,467.01 481.58,462.44 485.56,459.75 491.14,459.14"/>
    </edge>
    <edge id=":J08_23" function="internal">
        <lane id=":J08_23_0" index="0" speed="3.65" length="3.23" shape="479.20,472.85 480.00,472.45 480.80,472.85 481.60,474.05"/>
    </edge>
    <edge id=":J08_5" function="internal">
        <lane id=":J08_5_0" index="0" speed="6.37" length="9.04" shape="490.50,468.72 488.00,468.91 486.22,469.86 485.16,471.57 484.80,474.05"/>
    </edge>
    <edge id=":J08_6" function="internal">