<edges>
    <edge id="W_MAIN_to_J06" from="W_MAIN" to="J06" type="main"/>
    <edge id="J06_to_W_MAIN" from="J06" to="W_MAIN" type="main"/>
    <edge id="J06_to_J07" from="J06" to="J07" type="main"/>
    <edge id="J07_to_J06" from="J07" to="J06" type="main"/>
    <edge id="J07_to_J08" from="J07" to="J08" type="main"/>
    <edge id="J08_to_J07" from="J08" to="J07" type="main"/>
    <edge id="J08_to_J09" from="J08" to="J09" type="main"/>
    <edge id="J09_to_J08" from="J09" to="J08" type="main"/>
    <edge id="J09_to_J10" from="J09" to="J10" type="main"/>
    <edge id="J10_to_J09" from="J10" to="J09" type="main"/>
    <edge id="J10_to_E_MAIN" from="J10" to="E_MAIN" type="main"/>
    <edge id="E_MAIN_to_J10" from="E_MAIN" to="J10" type="main"/>
    <edge id="N_SPINE_to_J03" from="N_SPINE" to="J03" type="spine"/>
    <edge id="J03_to_N_SPINE" from="J03" to="N_SPINE" type="spine"/>
    <edge id="J03_to_J08" from="J03" to="J08" type="spine"/>
    <edge id="J08_to_J03" from="J08" to="J03" type="spine"/>
    <edge id="J08_to_J13" from="J08" to="J13" type="spine"/>
    <edge id="J13_to_J08" from="J13" to="J08" type="spine"/>
    <edge id="J13_to_J18" from="J13" to="J18" type="spine"/>
    <edge id="J18_to_J13" from="J18" to="J13" type="spine"/>
    <edge id="J18_to_S_SPINE" from="J18" to="S_SPINE" type="spine"/>
    <edge id="S_SPINE_to_J18" from="S_SPINE" to="J18" type="spine"/>
    <edge id="W_TOP_to_J02" from="W_TOP" to="J02" type="peripheral"/>
    <edge id="J02_to_W_TOP" from="J02" to="W_TOP" type="peripheral"/>
    <edge id="J01_to_J02" from="J01" to="J02" type="peripheral"/>
    <edge id="J02_to_J01" from="J02" to="J01" type="peripheral"/>
    <edge id="J02_to_J03" from="J02" to="J03" type="peripheral"/>
    <edge id="J03_to_J02" from="J03" to="J02" type="peripheral"/>
    <edge id="J03_to_J04" from="J03" to="J04" type="peripheral"/>
    <edge id="J04_to_J03" from="J04" to="J03" type="peripheral"/>
    <edge id="J04_to_J05" from="J04" to="J05" type="peripheral"/>
    <edge id="J05_to_J04" from="J05" to="J04" type="peripheral"/>
    <edge id="J05_to_E_TOP" from="J05" to="E_TOP" type="peripheral"/>
    <edge id="E_TOP_to_J05" from="E_TOP" to="J05" type="peripheral"/>
    <edge id="W_LOWER_to_J11" from="W_LOWER" to="J11" type="feeder"/>
    <edge id="J11_to_W_LOWER" from="J11" to="W_LOWER" type="feeder"/>
    <edge id="J11_to_J12" from="J11" to="J12" type="feeder"/>
    <edge id="J12_to_J11" from="J12" to="J11" type="feeder"/>
    <edge id="J12_to_J13" from="J12" to="J13" type="feeder"/>
    <edge id="J13_to_J12" from="J13" to="J12" type="feeder"/>
    <edge id="J13_to_J14" from="J13" to="J14" type="feeder"/>
    <edge id="J14_to_J13" from="J14" to="J13" type="feeder"/>
    <edge id="J14_to_J15" from="J14" to="J15" type="feeder"/>
    <edge id="J15_to_J14" from="J15" to="J14" type="feeder"/>
    <edge id="J14_to_E_LOWER" from="J14" to="E_LOWER" type="feeder"/>
    <edge id="E_LOWER_to_J14" from="E_LOWER" to="J14" type="feeder"/>
    <edge id="J16_to_J17" from="J16" to="J17" type="peripheral"/>
    <edge id="J17_to_J16" from="J17" to="J16" type="peripheral"/>
    <edge id="J17_to_J18" from="J17" to="J18" type="peripheral"/>
    <edge id="J18_to_J17" from="J18" to="J17" type="peripheral"/>
    <edge id="J18_to_J19" from="J18" to="J19" type="peripheral"/>
    <edge id="J19_to_J18" from="J19" to="J18" type="peripheral"/>
    <edge id="J19_to_J20" from="J19" to="J20" type="peripheral"/>
    <edge id="J20_to_J19" from="J20" to="J19" type="peripheral"/>
    <edge id="J20_to_S_EAST" from="J20" to="S_EAST" type="peripheral"/>
    <edge id="S_EAST_to_J20" from="S_EAST" to="J20" type="peripheral"/>
    <edge id="J01_to_J06" from="J01" to="J06" type="peripheral"/>
    <edge id="J06_to_J01" from="J06" to="J01" type="peripheral"/>
    <edge id="J02_to_J07" from="J02" to="J07" type="feeder"/>
    <edge id="J07_to_J02" from="J07" to="J02" type="feeder"/>
    <edge id="J04_to_J09" from="J04" to="J09" type="feeder"/>
    <edge id="J09_to_J04" from="J09" to="J04" type="feeder"/>
    <edge id="J05_to_J10" from="J05" to="J10" type="peripheral"/>
    <edge id="J10_to_J05" from="J10" to="J05" type="peripheral"/>
    <edge id="J07_to_J12" from="J07" to="J12" type="bottleneck"/>
    <edge id="J12_to_J07" from="J12" to="J07" type="bottleneck"/>
    <edge id="J09_to_J14" from="J09" to="J14" type="bottleneck"/>
    <edge id="J14_to_J09" from="J14" to="J09" type="bottleneck"/>
    <edge id="J11_to_J16" from="J11" to="J16" type="peripheral"/>
    <edge id="J16_to_J11" from="J16" to="J11" type="peripheral"/>
    <edge id="J12_to_J17" from="J12" to="J17" type="feeder"/>
    <edge id="J17_to_J12" from="J17" to="J12" type="feeder"/>
    <edge id="J14_to_J19" from="J14" to="J19" type="feeder"/>
    <edge id="J19_to_J14" from="J19" to="J14" type="feeder"/>
    <edge id="J15_to_J20" from="J15" to="J20" type="peripheral"/>
    <edge id="J20_to_J15" from="J20" to="J15" type="peripheral"/>
    <edge id="J03_to_N_EAST" from="J03" to="N_EAST" type="peripheral"/>
    <edge id="N_EAST_to_J03" from="N_EAST" to="J03" type="peripheral"/>
    <edge id="J10_to_J15" from="J10" to="J15" type="bottleneck"/>
    <edge id="J15_to_J10" from="J15" to="J10" type="bottleneck"/>
    <edge id="J07_to_J11" from="J07" to="J11" type="peripheral"/>
    <edge id="J11_to_J07" from="J11" to="J07" type="peripheral"/>
    <edge id="J09_to_J15" from="J09" to="J15" type="peripheral"/>
    <edge id="J15_to_J09" from="J15" to="J09" type="peripheral"/>
</edges>
