<types>
    <type id="main" priority="90" numLanes="3" speed="16.7"/>
    <type id="spine" priority="80" numLanes="2" speed="15.0"/>
    <type id="feeder" priority="60" numLanes="2" speed="13.0"/>
    <type id="peripheral" priority="40" numLanes="1" speed="11.0"/>
    <type id="bottleneck" priority="55" numLanes="1" speed="10.0"/>
</types>
