<?xml version="1.0" encoding="UTF-8"?>

<!-- generated on 2026-04-08T16:01:29.177132+02:00 by Eclipse SUMO netconvert 1.25.0
<netconvertConfiguration xmlns:xsi="http://www.w3.org/2001/XMLSchema-instance" xsi:noNamespaceSchemaLocation="http://sumo.dlr.de/xsd/netconvertConfiguration.xsd">

    <input>
        <node-files value="C:\Users\vedoc\Desktop\capstone_simulationv2\sumo_benchmark_50\inputs\benchmark.nod.xml"/>
        <edge-files value="C:\Users\vedoc\Desktop\capstone_simulationv2\sumo_benchmark_50\inputs\benchmark.edg.xml"/>
        <type-files value="C:\Users\vedoc\Desktop\capstone_simulationv2\sumo_benchmark_50\inputs\benchmark.typ.xml"/>
    </input>

    <output>
        <output-file value="C:\Users\vedoc\Desktop\capstone_simulationv2\sumo_benchmark_50\generated\benchmark.net.xml"/>
    </output>

    <tls_building>
        <tls.guess value="true"/>
        <tls.green.time value="21"/>
        <tls.yellow.time value="3"/>
        <tls.red.time value="2"/>
        <tls.default-type value="static"/>
    </tls_building>

</netconvertConfiguration>
-->

<net version="1.20" junctionCornerDetail="5" limitTurnSpeed="5.50" xmlns:xsi="http://www.w3.org/2001/XMLSchema-instance" xsi:noNamespaceSchemaLocation="http://sumo.dlr.de/xsd/net_file.xsd">

    <location netOffset="260.00,390.00" convBoundary="0.00,0.00,1835.00,1095.00" origBoundary="-260.00,-390.00,1575.00,705.00" projParameter="!"/>

    <type id="bottleneck" priority="55" numLanes="1" speed="10.00"/>
    <type id="feeder" priority="60" numLanes="2" speed="13.00"/>
    <type id="main" priority="90" numLanes="3" speed="16.70"/>
    <type id="peripheral" priority="40" numLanes="1" speed="11.00"/>
    <type id="spine" priority="80" numLanes="2" speed="15.00"/>

    <edge id=":E_LOWER_0" function="internal">
        <lane id=":E_LOWER_0_0" index="0" speed="3.65" length="4.67" shape="1765.00,368.40 1766.20,369.20 1766.60,370.00 1766.20,370.80 1765.00,371.60"/>
    </edge>
    <edge id=":E_MAIN_0" function="internal">
        <lane id=":E_MAIN_0_0" index="0" speed="3.65" length="4.67" shape="1800.00,543.40 1801.20,544.20 1801.60,545.00 1801.20,545.80 1800.00,546.60"/>
    </edge>
    <edge id=":E_SOUTH_0" function="internal">
        <lane id=":E_SOUTH_0_0" index="0" speed="3.65" length="4.67" shape="1835.00,198.40 1836.20,199.20 1836.60,200.00 1836.20,200.80 1835.00,201.60"/>
    </edge>
    <edge id=":E_TOP_0" function="internal">
        <lane id=":E_TOP_0_0" index="0" speed="3.65" length="4.67" shape="1700.00,858.40 1701.20,859.20 1701.60,860.00 1701.20,860.80 1700.00,861.60"/>
    </edge>
    <edge id=":E_UPPER_0" function="internal">
        <lane id=":E_UPPER_0_0" index="0" speed="3.65" length="4.67" shape="1745.00,708.40 1746.20,709.20 1746.60,710.00 1746.20,710.80 1745.00,711.60"/>
    </edge>
    <edge id=":J01_0" function="internal">
        <lane id=":J01_0_0" index="0" speed="11.00" length="14.57" shape="266.54,861.60 251.97,861.60"/>
    </edge>
    <edge id=":J01_1" function="internal">
        <lane id=":J01_1_0" index="0" speed="8.89" length="3.76" shape="266.54,861.60 262.99,861.03 262.85,860.95"/>
    </edge>
    <edge id=":J01_2" function="internal">
        <lane id=":J01_2_0" index="0" speed="3.65" length="1.44" shape="266.54,861.60 265.34,860.80"/>
    </edge>
    <edge id=":J01_9" function="internal">
        <lane id=":J01_9_0" index="0" speed="8.89" length="10.89" shape="262.85,860.95 260.15,859.34 258.03,856.50 256.62,852.54"/>
    </edge>
    <edge id=":J01_10" function="internal">
        <lane id=":J01_10_0" index="0" speed="3.65" length="3.23" shape="265.34,860.80 264.94,860.00 265.34,859.20 266.54,858.40"/>
    </edge>
    <edge id=":J01_3" function="internal">
        <lane id=":J01_3_0" index="0" speed="7.54" length="10.31" shape="259.73,851.81 260.73,854.70 262.20,856.75 264.14,857.99 266.54,858.40"/>
    </edge>
    <edge id=":J01_4" function="internal">
        <lane id=":J01_4_0" index="0" speed="7.65" length="15.14" shape="259.73,851.81 260.10,856.10 258.93,859.15 256.22,860.99 251.97,861.60"/>
    </edge>
    <edge id=":J01_5" function="internal">
        <lane id=":J01_5_0" index="0" speed="3.65" length="1.44" shape="259.73,851.81 259.23,853.16"/>
    </edge>
    <edge id=":J01_11" function="internal">
        <lane id=":J01_11_0" index="0" speed="3.65" length="3.23" shape="259.23,853.16 258.54,853.74 257.67,853.53 256.62,852.54"/>
    </edge>
    <edge id=":J01_6" function="internal">
        <lane id=":J01_6_0" index="0" speed="6.07" length="9.07" shape="251.97,858.40 254.51,858.03 256.14,856.94 256.84,855.10 256.62,852.54"/>
    </edge>
    <edge id=":J01_7" function="internal">
        <lane id=":J01_7_0" index="0" speed="11.00" length="14.57" shape="251.97,858.40 266.54,858.40"/>
    </edge>
    <edge id=":J01_8" function="internal">
        <lane id=":J01_8_0" index="0" speed="3.65" length="1.44" shape="251.97,858.40 253.17,859.20"/>
    </edge>
    <edge id=":J01_12" function="internal">
        <lane id=":J01_12_0" index="0" speed="3.65" length="3.23" shape="253.17,859.20 253.57,860.00 253.17,860.80 251.97,861.60"/>
    </edge>
    <edge id=":J02_0" function="internal">
        <lane id=":J02_0_0" index="0" speed="11.00" length="0.10" shape="390.00,861.60 390.00,861.60"/>
    </edge>
    <edge id=":J02_1" function="internal">
        <lane id=":J02_1_0" index="0" speed="11.00" length="0.10" shape="390.00,858.40 390.00,858.40"/>
    </edge>
    <edge id=":J03_0" function="internal">
        <lane id=":J03_0_0" index="0" speed="6.54" length="9.12" shape="510.20,867.20 509.84,864.75 508.77,863.00 506.99,861.95 504.49,861.60"/>
    </edge>
    <edge id=":J03_1" function="internal">
        <lane id=":J03_1_0" index="0" speed="13.00" length="14.51" shape="510.20,867.20 509.96,852.75"/>
        <lane id=":J03_1_1" index="1" speed="13.00" length="14.51" shape="513.40,867.20 513.15,852.64"/>
    </edge>
    <edge id=":J03_3" function="internal">
        <lane id=":J03_3_0" index="0" speed="8.67" length="3.46" shape="513.40,867.20 514.06,863.80"/>
    </edge>
    <edge id=":J03_4" function="internal">
        <lane id=":J03_4_0" index="0" speed="3.65" length="1.44" shape="513.40,867.20 514.20,866.00"/>
    </edge>
    <edge id=":J03_18" function="internal">
        <lane id=":J03_18_0" index="0" speed="8.67" length="13.39" shape="514.06,863.80 514.15,863.35 516.40,860.60 520.15,858.95 525.40,858.40"/>
    </edge>
    <edge id=":J03_19" function="internal">
        <lane id=":J03_19_0" index="0" speed="3.65" length="3.23" shape="514.20,866.00 515.00,865.60 515.80,866.00 516.60,867.20"/>
    </edge>
    <edge id=":J03_5" function="internal">
        <lane id=":J03_5_0" index="0" speed="6.51" length="9.03" shape="525.40,861.60 522.95,861.95 521.20,863.00 520.15,864.75 519.80,867.20"/>
    </edge>
    <edge id=":J03_6" function="internal">
        <lane id=":J03_6_0" index="0" speed="11.00" length="20.91" shape="525.40,861.60 504.49,861.60"/>
    </edge>
    <edge id=":J03_7" function="internal">
        <lane id=":J03_7_0" index="0" speed="8.83" length="5.53" shape="525.40,861.60 520.15,861.04 519.92,860.94"/>
    </edge>
    <edge id=":J03_8" function="internal">
        <lane id=":J03_8_0" index="0" speed="3.65" length="1.44" shape="525.40,861.60 524.20,860.80"/>
    </edge>
    <edge id=":J03_20" function="internal">
        <lane id=":J03_20_0" index="0" speed="8.83" length="11.55" shape="519.92,860.94 516.36,859.36 514.03,856.56 513.15,852.64"/>
    </edge>
    <edge id=":J03_21" function="internal">
        <lane id=":J03_21_0" index="0" speed="3.65" length="3.23" shape="524.20,860.80 523.80,860.00 524.20,859.20 525.40,858.40"/>
    </edge>
    <edge id=":J03_9" function="internal">
        <lane id=":J03_9_0" index="0" speed="6.72" length="9.46" shape="519.55,852.43 519.99,855.04 521.11,856.91 522.92,858.03 525.40,858.40"/>
    </edge>
    <edge id=":J03_10" function="internal">
        <lane id=":J03_10_0" index="0" speed="13.00" length="14.72" shape="519.55,852.43 519.80,867.20"/>
        <lane id=":J03_10_1" index="1" speed="13.00" length="14.72" shape="516.35,852.54 516.60,867.20"/>
    </edge>
    <edge id=":J03_12" function="internal">
        <lane id=":J03_12_0" index="0" speed="8.61" length="3.88" shape="516.35,852.54 515.75,856.37"/>
    </edge>
    <edge id=":J03_13" function="internal">
        <lane id=":J03_13_0" index="0" speed="3.65" length="1.44" shape="516.35,852.54 515.59,853.76"/>
    </edge>
    <edge id=":J03_22" function="internal">
        <lane id=":J03_22_0" index="0" speed="8.61" length="13.16" shape="515.75,856.37 515.72,856.50 513.54,859.33 509.79,861.03 504.49,861.60"/>
    </edge>
    <edge id=":J03_23" function="internal">
        <lane id=":J03_23_0" index="0" speed="3.65" length="3.23" shape="515.59,853.76 514.81,854.19 513.99,853.81 513.15,852.64"/>
    </edge>
    <edge id=":J03_14" function="internal">
        <lane id=":J03_14_0" index="0" speed="6.44" length="9.03" shape="504.49,858.40 506.95,858.05 508.68,856.99 509.68,855.22 509.96,852.75"/>
    </edge>
    <edge id=":J03_15" function="internal">
        <lane id=":J03_15_0" index="0" speed="11.00" length="20.91" shape="504.49,858.40 525.40,858.40"/>
    </edge>
    <edge id=":J03_16" function="internal">
        <lane id=":J03_16_0" index="0" speed="8.69" length="5.61" shape="504.49,858.40 509.79,858.95 510.05,859.06"/>
    </edge>
    <edge id=":J03_17" function="internal">
        <lane id=":J03_17_0" index="0" speed="3.65" length="1.44" shape="504.49,858.40 505.69,859.20"/>
    </edge>
    <edge id=":J03_24" function="internal">
        <lane id=":J03_24_0" index="0" speed="8.69" length="11.33" shape="510.05,859.06 513.57,860.60 515.84,863.35 516.60,867.20"/>
    </edge>
    <edge id=":J03_25" function="internal">
        <lane id=":J03_25_0" index="0" speed="3.65" length="3.23" shape="505.69,859.20 506.09,860.00 505.69,860.80 504.49,861.60"/>
    </edge>
    <edge id=":J04_0" function="internal">
        <lane id=":J04_0_0" index="0" speed="11.00" length="18.90" shape="661.91,861.60 643.01,861.60"/>
    </edge>
    <edge id=":J04_1" function="internal">
        <lane id=":J04_1_0" index="0" speed="9.58" length="4.84" shape="661.91,861.60 657.12,860.89"/>
    </edge>
    <edge id=":J04_2" function="internal">
        <lane id=":J04_2_0" index="0" speed="7.48" length="6.04" shape="661.91,861.60 655.90,860.92"/>
    </edge>
    <edge id=":J04_3" function="internal">
        <lane id=":J04_3_0" index="0" speed="3.65" length="1.44" shape="661.91,861.60 660.71,860.80"/>
    </edge>
    <edge id=":J04_16" function="internal">
        <lane id=":J04_16_0" index="0" speed="9.58" length="17.03" shape="657.12,860.89 656.01,860.73 651.93,858.10 649.67,853.73 649.22,847.61"/>
    </edge>
    <edge id=":J04_17" function="internal">
        <lane id=":J04_17_0" index="0" speed="7.48" length="13.73" shape="655.90,860.92 655.70,860.89 652.93,858.77 653.61,855.24 657.73,850.29"/>
    </edge>
    <edge id=":J04_18" function="internal">
        <lane id=":J04_18_0" index="0" speed="3.65" length="3.23" shape="660.71,860.80 660.31,860.00 660.71,859.20 661.91,858.40"/>
    </edge>
    <edge id=":J04_4" function="internal">
        <lane id=":J04_4_0" index="0" speed="5.53" length="10.04" shape="659.96,852.59 657.83,855.13 657.44,856.95 658.80,858.04 661.91,858.40"/>
    </edge>
    <edge id=":J04_5" function="internal">
        <lane id=":J04_5_0" index="0" speed="11.00" length="19.48" shape="659.96,852.59 656.50,855.46 652.01,858.40 647.26,860.68 643.01,861.60"/>
    </edge>
    <edge id=":J04_6" function="internal">
        <lane id=":J04_6_0" index="0" speed="7.46" length="20.01" shape="659.96,852.59 654.85,856.57 651.36,857.07 649.48,854.08 649.22,847.61"/>
    </edge>
    <edge id=":J04_7" function="internal">
        <lane id=":J04_7_0" index="0" speed="3.65" length="1.44" shape="659.96,852.59 658.54,852.85"/>
    </edge>
    <edge id=":J04_19" function="internal">
        <lane id=":J04_19_0" index="0" speed="3.65" length="3.23" shape="658.54,852.85 657.70,852.55 657.43,851.70 657.73,850.29"/>
    </edge>
    <edge id=":J04_8" function="internal">
        <lane id=":J04_8_0" index="0" speed="5.46" length="9.91" shape="652.42,847.82 652.54,851.03 653.47,852.51 655.20,852.26 657.73,850.29"/>
    </edge>
    <edge id=":J04_9" function="internal">
        <lane id=":J04_9_0" index="0" speed="8.38" length="16.46" shape="652.42,847.82 652.74,852.45 654.44,855.76 657.49,857.74 661.91,858.40"/>
    </edge>
    <edge id=":J04_10" function="internal">
        <lane id=":J04_10_0" index="0" speed="9.29" length="18.49" shape="652.42,847.82 651.48,853.85 649.60,858.16 646.78,860.74 643.01,861.60"/>
    </edge>
    <edge id=":J04_11" function="internal">
        <lane id=":J04_11_0" index="0" speed="3.65" length="1.44" shape="652.42,847.82 651.54,848.97"/>
    </edge>
    <edge id=":J04_20" function="internal">
        <lane id=":J04_20_0" index="0" speed="3.65" length="3.23" shape="651.54,848.97 650.71,849.31 649.94,848.86 649.22,847.61"/>
    </edge>
    <edge id=":J04_12" function="internal">
        <lane id=":J04_12_0" index="0" speed="8.05" length="13.65" shape="643.01,858.40 645.46,857.73 647.31,855.70 648.56,852.33 649.22,847.61"/>
    </edge>
    <edge id=":J04_13" function="internal">
        <lane id=":J04_13_0" index="0" speed="11.00" length="17.13" shape="643.01,858.40 646.91,857.62 650.90,855.65 654.62,853.02 657.73,850.29"/>
    </edge>
    <edge id=":J04_14" function="internal">
        <lane id=":J04_14_0" index="0" speed="11.00" length="18.90" shape="643.01,858.40 661.91,858.40"/>
    </edge>
    <edge id=":J04_15" function="internal">
        <lane id=":J04_15_0" index="0" speed="3.65" length="1.44" shape="643.01,858.40 644.21,859.20"/>
    </edge>
    <edge id=":J04_21" function="internal">
        <lane id=":J04_21_0" index="0" speed="3.65" length="3.23" shape="644.21,859.20 644.61,860.00 644.21,860.80 643.01,861.60"/>
    </edge>
    <edge id=":J05_0" function="internal">
        <lane id=":J05_0_0" index="0" speed="11.00" length="0.10" shape="790.00,861.60 790.00,861.60"/>
    </edge>
    <edge id=":J05_1" function="internal">
        <lane id=":J05_1_0" index="0" speed="11.00" length="0.10" shape="790.00,858.40 790.00,858.40"/>
    </edge>
    <edge id=":J06_0" function="internal">
        <lane id=":J06_0_0" index="0" speed="7.29" length="10.47" shape="931.26,868.59 930.52,865.53 929.22,863.35 927.34,862.04 924.89,861.60"/>
    </edge>
    <edge id=":J06_1" function="internal">
        <lane id=":J06_1_0" index="0" speed="15.00" length="16.59" shape="931.26,868.59 930.65,863.60 930.42,860.16 930.54,856.71 931.01,851.71"/>
        <lane id=":J06_1_1" index="1" speed="15.00" length="16.59" shape="934.43,868.18 933.85,863.41 933.63,860.11 933.74,856.81 934.19,852.02"/>
    </edge>
    <edge id=":J06_3" function="internal">
        <lane id=":J06_3_0" index="0" speed="8.47" length="4.02" shape="934.43,868.18 934.66,864.17"/>
    </edge>
    <edge id=":J06_4" function="internal">
        <lane id=":J06_4_0" index="0" speed="3.65" length="1.44" shape="934.43,868.18 935.07,866.89"/>
    </edge>
    <edge id=":J06_18" function="internal">
        <lane id=":J06_18_0" index="0" speed="8.47" length="13.57" shape="934.66,864.17 934.68,863.90 936.66,860.85 940.39,859.01 945.86,858.40"/>
    </edge>
    <edge id=":J06_19" function="internal">
        <lane id=":J06_19_0" index="0" speed="3.65" length="3.23" shape="935.07,866.89 935.82,866.39 936.66,866.69 937.61,867.78"/>
    </edge>
    <edge id=":J06_5" function="internal">
        <lane id=":J06_5_0" index="0" speed="6.25" length="9.05" shape="945.86,861.60 943.36,861.96 941.68,863.04 940.82,864.85 940.78,867.37"/>
    </edge>
    <edge id=":J06_6" function="internal">
        <lane id=":J06_6_0" index="0" speed="11.00" length="20.97" shape="945.86,861.60 924.89,861.60"/>
    </edge>
    <edge id=":J06_7" function="internal">
        <lane id=":J06_7_0" index="0" speed="8.53" length="5.63" shape="945.86,861.60 940.40,861.00 940.27,860.94"/>
    </edge>
    <edge id=":J06_8" function="internal">
        <lane id=":J06_8_0" index="0" speed="3.65" length="1.44" shape="945.86,861.60 944.66,860.80"/>
    </edge>
    <edge id=":J06_20" function="internal">
        <lane id=":J06_20_0" index="0" speed="8.53" length="11.88" shape="940.27,860.94 936.63,859.21 934.56,856.21 934.19,852.02"/>
    </edge>
    <edge id=":J06_21" function="internal">
        <lane id=":J06_21_0" index="0" speed="3.65" length="3.23" shape="944.66,860.80 944.26,860.00 944.66,859.20 945.86,858.40"/>
    </edge>
    <edge id=":J06_9" function="internal">
        <lane id=":J06_9_0" index="0" speed="6.33" length="9.13" shape="940.56,852.66 940.67,855.17 941.60,856.97 943.33,858.04 945.86,858.40"/>
    </edge>
    <edge id=":J06_10" function="internal">
        <lane id=":J06_10_0" index="0" speed="15.00" length="15.13" shape="940.56,852.66 940.15,857.02 940.05,860.02 940.25,863.02 940.78,867.37"/>
        <lane id=":J06_10_1" index="1" speed="15.00" length="15.13" shape="937.37,852.34 936.95,856.92 936.84,860.07 937.05,863.21 937.61,867.78"/>
    </edge>
    <edge id=":J06_12" function="internal">
        <lane id=":J06_12_0" index="0" speed="9.12" length="4.01" shape="937.37,852.34 936.30,856.20"/>
    </edge>
    <edge id=":J06_13" function="internal">
        <lane id=":J06_13_0" index="0" speed="3.65" length="1.44" shape="937.37,852.34 936.46,853.46"/>
    </edge>
    <edge id=":J06_22" function="internal">
        <lane id=":J06_22_0" index="0" speed="9.12" length="13.30" shape="936.30,856.20 936.25,856.39 933.79,859.29 930.00,861.02 924.89,861.60"/>
    </edge>
    <edge id=":J06_23" function="internal">
        <lane id=":J06_23_0" index="0" speed="3.65" length="3.23" shape="936.46,853.46 935.62,853.78 934.87,853.30 934.19,852.02"/>
    </edge>
    <edge id=":J06_14" function="internal">
        <lane id=":J06_14_0" index="0" speed="7.10" length="10.10" shape="924.89,858.40 927.31,857.98 929.14,856.73 930.37,854.63 931.01,851.71"/>
    </edge>
    <edge id=":J06_15" function="internal">
        <lane id=":J06_15_0" index="0" speed="11.00" length="20.97" shape="924.89,858.40 945.86,858.40"/>
    </edge>
    <edge id=":J06_16" function="internal">
        <lane id=":J06_16_0" index="0" speed="9.27" length="5.33" shape="924.89,858.40 930.00,858.99 930.17,859.06"/>
    </edge>
    <edge id=":J06_17" function="internal">
        <lane id=":J06_17_0" index="0" speed="3.65" length="1.44" shape="924.89,858.40 926.09,859.20"/>
    </edge>
    <edge id=":J06_24" function="internal">
        <lane id=":J06_24_0" index="0" speed="9.27" length="12.19" shape="930.17,859.06 933.83,860.74 936.36,863.67 937.61,867.78"/>
    </edge>
    <edge id=":J06_25" function="internal">
        <lane id=":J06_25_0" index="0" speed="3.65" length="3.23" shape="926.09,859.20 926.49,860.00 926.09,860.80 924.89,861.60"/>
    </edge>
    <edge id=":J07_0" function="internal">
        <lane id=":J07_0_0" index="0" speed="11.00" length="14.43" shape="1087.54,861.60 1073.10,861.60"/>
    </edge>
    <edge id=":J07_1" function="internal">
        <lane id=":J07_1_0" index="0" speed="7.83" length="4.16" shape="1087.54,861.60 1083.52,861.02 1083.44,860.97"/>
    </edge>
    <edge id=":J07_2" function="internal">
        <lane id=":J07_2_0" index="0" speed="3.65" length="1.44" shape="1087.54,861.60 1086.34,860.80"/>
    </edge>
    <edge id=":J07_9" function="internal">
        <lane id=":J07_9_0" index="0" speed="7.83" length="10.43" shape="1083.44,860.97 1080.79,859.29 1079.33,856.39 1079.16,852.34"/>
    </edge>
    <edge id=":J07_10" function="internal">
        <lane id=":J07_10_0" index="0" speed="3.65" length="3.23" shape="1086.34,860.80 1085.94,860.00 1086.34,859.20 1087.54,858.40"/>
    </edge>
    <edge id=":J07_3" function="internal">
        <lane id=":J07_3_0" index="0" speed="6.30" length="9.04" shape="1082.34,852.66 1082.45,855.17 1083.35,856.97 1085.05,858.04 1087.54,858.40"/>
    </edge>
    <edge id=":J07_4" function="internal">
        <lane id=":J07_4_0" index="0" speed="8.35" length="14.35" shape="1082.34,852.66 1081.43,856.57 1079.59,859.37 1076.81,861.04 1073.10,861.60"/>
    </edge>
    <edge id=":J07_5" function="internal">
        <lane id=":J07_5_0" index="0" speed="3.65" length="1.44" shape="1082.34,852.66 1081.43,853.78"/>
    </edge>
    <edge id=":J07_11" function="internal">
        <lane id=":J07_11_0" index="0" speed="3.65" length="3.23" shape="1081.43,853.78 1080.59,854.09 1079.83,853.62 1079.16,852.34"/>
    </edge>
    <edge id=":J07_6" function="internal">
        <lane id=":J07_6_0" index="0" speed="6.92" length="9.56" shape="1073.10,858.40 1075.53,858.02 1077.34,856.89 1078.55,854.99 1079.16,852.34"/>
    </edge>
    <edge id=":J07_7" function="internal">
        <lane id=":J07_7_0" index="0" speed="11.00" length="14.43" shape="1073.10,858.40 1087.54,858.40"/>
    </edge>
    <edge id=":J07_8" function="internal">
        <lane id=":J07_8_0" index="0" speed="3.65" length="1.44" shape="1073.10,858.40 1074.30,859.20"/>
    </edge>
    <edge id=":J07_12" function="internal">
        <lane id=":J07_12_0" index="0" speed="3.65" length="3.23" shape="1074.30,859.20 1074.70,860.00 1074.30,860.80 1073.10,861.60"/>
    </edge>
    <edge id=":J08_0" function="internal">
        <lane id=":J08_0_0" index="0" speed="11.00" length="17.05" shape="1241.73,861.60 1224.67,861.60"/>
    </edge>
    <edge id=":J08_1" function="internal">
        <lane id=":J08_1_0" index="0" speed="7.42" length="6.00" shape="1241.73,861.60 1235.76,860.93"/>
    </edge>
    <edge id=":J08_2" function="internal">
        <lane id=":J08_2_0" index="0" speed="3.65" length="1.44" shape="1241.73,861.60 1240.53,860.80"/>
    </edge>
    <edge id=":J08_9" function="internal">
        <lane id=":J08_9_0" index="0" speed="7.42" length="13.30" shape="1235.76,860.93 1235.59,860.91 1232.79,858.84 1233.31,855.40 1237.16,850.58"/>
    </edge>
    <edge id=":J08_10" function="internal">
        <lane id=":J08_10_0" index="0" speed="3.65" length="3.23" shape="1240.53,860.80 1240.13,860.00 1240.53,859.20 1241.73,858.40"/>
    </edge>
    <edge id=":J08_3" function="internal">
        <lane id=":J08_3_0" index="0" speed="5.47" length="9.74" shape="1239.42,852.84 1237.48,855.27 1237.22,857.01 1238.63,858.05 1241.73,858.40"/>
    </edge>
    <edge id=":J08_4" function="internal">
        <lane id=":J08_4_0" index="0" speed="11.00" length="17.52" shape="1239.42,852.84 1235.22,856.67 1231.36,859.41 1227.84,861.05 1224.67,861.60"/>
    </edge>
    <edge id=":J08_5" function="internal">
        <lane id=":J08_5_0" index="0" speed="3.65" length="1.44" shape="1239.42,852.84 1238.01,853.12"/>
    </edge>
    <edge id=":J08_11" function="internal">
        <lane id=":J08_11_0" index="0" speed="3.65" length="3.23" shape="1238.01,853.12 1237.16,852.84 1236.88,851.99 1237.16,850.58"/>
    </edge>
    <edge id=":J08_6" function="internal">
        <lane id=":J08_6_0" index="0" speed="11.00" length="15.02" shape="1224.67,858.40 1227.20,857.91 1230.13,856.44 1233.45,854.00 1237.16,850.58"/>
    </edge>
    <edge id=":J08_7" function="internal">
        <lane id=":J08_7_0" index="0" speed="11.00" length="17.05" shape="1224.67,858.40 1241.73,858.40"/>
    </edge>
    <edge id=":J08_8" function="internal">
        <lane id=":J08_8_0" index="0" speed="3.65" length="1.44" shape="1224.67,858.40 1225.87,859.20"/>
    </edge>
    <edge id=":J08_12" function="internal">
        <lane id=":J08_12_0" index="0" speed="3.65" length="3.23" shape="1225.87,859.20 1226.27,860.00 1225.87,860.80 1224.67,861.60"/>
    </edge>
    <edge id=":J09_0" function="internal">
        <lane id=":J09_0_0" index="0" speed="6.86" length="9.77" shape="1380.58,867.75 1380.09,865.06 1378.90,863.14 1377.04,861.98 1374.49,861.60"/>
    </edge>
    <edge id=":J09_1" function="internal">
        <lane id=":J09_1_0" index="0" speed="13.00" length="14.99" shape="1380.58,867.75 1379.96,852.75"/>
        <lane id=":J09_1_1" index="1" speed="13.00" length="14.99" shape="1383.78,867.59 1383.15,852.64"/>
    </edge>
    <edge id=":J09_3" function="internal">
        <lane id=":J09_3_0" index="0" speed="8.59" length="3.87" shape="1383.78,867.59 1384.32,863.76"/>
    </edge>
    <edge id=":J09_4" function="internal">
        <lane id=":J09_4_0" index="0" speed="3.65" length="1.44" shape="1383.78,867.59 1384.52,866.36"/>
    </edge>
    <edge id=":J09_18" function="internal">
        <lane id=":J09_18_0" index="0" speed="8.59" length="13.26" shape="1384.32,863.76 1384.34,863.57 1386.50,860.70 1390.24,858.97 1395.57,858.40"/>
    </edge>
    <edge id=":J09_19" function="internal">
        <lane id=":J09_19_0" index="0" speed="3.65" length="3.23" shape="1384.52,866.36 1385.30,865.92 1386.11,866.28 1386.97,867.43"/>
    </edge>
    <edge id=":J09_5" function="internal">
        <lane id=":J09_5_0" index="0" speed="6.40" length="9.04" shape="1395.57,861.60 1393.10,861.95 1391.38,863.02 1390.40,864.79 1390.17,867.27"/>
    </edge>
    <edge id=":J09_6" function="internal">
        <lane id=":J09_6_0" index="0" speed="11.00" length="21.08" shape="1395.57,861.60 1374.49,861.60"/>
    </edge>
    <edge id=":J09_7" function="internal">
        <lane id=":J09_7_0" index="0" speed="8.87" length="5.61" shape="1395.57,861.60 1390.25,861.04 1390.01,860.94"/>
    </edge>
    <edge id=":J09_8" function="internal">
        <lane id=":J09_8_0" index="0" speed="3.65" length="1.44" shape="1395.57,861.60 1394.37,860.80"/>
    </edge>
    <edge id=":J09_20" function="internal">
        <lane id=":J09_20_0" index="0" speed="8.87" length="11.62" shape="1390.01,860.94 1386.41,859.36 1384.04,856.56 1383.15,852.64"/>
    </edge>
    <edge id=":J09_21" function="internal">
        <lane id=":J09_21_0" index="0" speed="3.65" length="3.23" shape="1394.37,860.80 1393.97,860.00 1394.37,859.20 1395.57,858.40"/>
    </edge>
    <edge id=":J09_9" function="internal">
        <lane id=":J09_9_0" index="0" speed="6.77" length="9.60" shape="1389.55,852.43 1390.00,855.04 1391.15,856.91 1393.01,858.03 1395.57,858.40"/>
    </edge>
    <edge id=":J09_10" function="internal">
        <lane id=":J09_10_0" index="0" speed="13.00" length="14.89" shape="1389.55,852.43 1390.17,867.27"/>
        <lane id=":J09_10_1" index="1" speed="13.00" length="14.89" shape="1386.35,852.54 1386.97,867.43"/>
    </edge>
    <edge id=":J09_12" function="internal">
        <lane id=":J09_12_0" index="0" speed="8.61" length="3.63" shape="1386.35,852.54 1385.78,856.12"/>
    </edge>
    <edge id=":J09_13" function="internal">
        <lane id=":J09_13_0" index="0" speed="3.65" length="1.44" shape="1386.35,852.54 1385.59,853.76"/>
    </edge>
    <edge id=":J09_22" function="internal">
        <lane id=":J09_22_0" index="0" speed="8.61" length="13.40" shape="1385.78,856.12 1385.72,856.50 1383.54,859.33 1379.79,861.03 1374.49,861.60"/>
    </edge>
    <edge id=":J09_23" function="internal">
        <lane id=":J09_23_0" index="0" speed="3.65" length="3.23" shape="1385.59,853.76 1384.81,854.19 1383.99,853.81 1383.15,852.64"/>
    </edge>
    <edge id=":J09_14" function="internal">
        <lane id=":J09_14_0" index="0" speed="6.44" length="9.03" shape="1374.49,858.40 1376.95,858.05 1378.68,856.99 1379.68,855.22 1379.96,852.75"/>
    </edge>
    <edge id=":J09_15" function="internal">
        <lane id=":J09_15_0" index="0" speed="11.00" length="21.08" shape="1374.49,858.40 1395.57,858.40"/>
    </edge>
    <edge id=":J09_16" function="internal">
        <lane id=":J09_16_0" index="0" speed="8.94" length="5.57" shape="1374.49,858.40 1379.78,858.96 1380.01,859.06"/>
    </edge>
    <edge id=":J09_17" function="internal">
        <lane id=":J09_17_0" index="0" speed="3.65" length="1.44" shape="1374.49,858.40 1375.69,859.20"/>
    </edge>
    <edge id=":J09_24" function="internal">
        <lane id=":J09_24_0" index="0" speed="8.94" length="11.73" shape="1380.01,859.06 1383.63,860.66 1386.02,863.48 1386.97,867.43"/>
    </edge>
    <edge id=":J09_25" function="internal">
        <lane id=":J09_25_0" index="0" speed="3.65" length="3.23" shape="1375.69,859.20 1376.09,860.00 1375.69,860.80 1374.49,861.60"/>
    </edge>
    <edge id=":J10_0" function="internal">
        <lane id=":J10_0_0" index="0" speed="11.00" length="14.43" shape="1546.90,861.60 1532.46,861.60"/>
    </edge>
    <edge id=":J10_1" function="internal">
        <lane id=":J10_1_0" index="0" speed="8.35" length="3.91" shape="1546.90,861.60 1543.19,861.04 1543.05,860.96"/>
    </edge>
    <edge id=":J10_2" function="internal">
        <lane id=":J10_2_0" index="0" speed="3.65" length="1.44" shape="1546.90,861.60 1545.70,860.80"/>
    </edge>
    <edge id=":J10_9" function="internal">
        <lane id=":J10_9_0" index="0" speed="8.35" length="10.44" shape="1543.05,860.96 1540.41,859.37 1538.57,856.57 1537.66,852.66"/>
    </edge>
    <edge id=":J10_10" function="internal">
        <lane id=":J10_10_0" index="0" speed="3.65" length="3.23" shape="1545.70,860.80 1545.30,860.00 1545.70,859.20 1546.90,858.40"/>
    </edge>
    <edge id=":J10_3" function="internal">
        <lane id=":J10_3_0" index="0" speed="6.92" length="9.56" shape="1540.84,852.34 1541.45,854.99 1542.66,856.89 1544.47,858.02 1546.90,858.40"/>
    </edge>
    <edge id=":J10_4" function="internal">
        <lane id=":J10_4_0" index="0" speed="7.83" length="14.59" shape="1540.84,852.34 1540.67,856.39 1539.21,859.29 1536.48,861.02 1532.46,861.60"/>
    </edge>
    <edge id=":J10_5" function="internal">
        <lane id=":J10_5_0" index="0" speed="3.65" length="1.44" shape="1540.84,852.34 1540.17,853.62"/>
    </edge>
    <edge id=":J10_11" function="internal">
        <lane id=":J10_11_0" index="0" speed="3.65" length="3.23" shape="1540.17,853.62 1539.41,854.09 1538.57,853.78 1537.66,852.66"/>
    </edge>
    <edge id=":J10_6" function="internal">